Circuit: * C:\Users\josel\hobby\dev_RM60\RM60.asc

Warning: Multiple definitions of model "2scr375p" Type: BJT
Warning: Multiple definitions of model "bc857b" Type: BJT
Warning: Multiple definitions of model "bc847c" Type: BJT
Warning: Multiple definitions of model "bc847b" Type: BJT
Direct Newton iteration for .op point succeeded.

Date: Sat Oct 28 17:49:20 2023
Total elapsed time: 6.380 seconds.

tnom = 27
temp = 27
method = modified trap
totiter = 1289581
traniter = 1289548
tranpoints = 302570
accept = 214894
rejected = 87676
matrix size = 53
fillins = 82
solver = Normal
Avg thread counts: 1.0/1.0/1.0/1.0
Matrix Compiler1: 8.06 KB object code size  1.4/0.8/[0.6]
Matrix Compiler2: 5.79 KB object code size  0.4/0.7/[0.4]

